
     RDKit          3D

 34 33  0  0  0  0  0  0  0  0999 V2000
    6.0660   -0.2805   -0.2318 C   0  0  0  0  0  0  0  0  0  0  0  0
    6.6789   -0.2833   -1.4633 F   0  0  0  0  0  0  0  0  0  0  0  0
    6.4424   -1.3932    0.4955 F   0  0  0  0  0  0  0  0  0  0  0  0
    6.4091    0.8314    0.5185 F   0  0  0  0  0  0  0  0  0  0  0  0
    4.6852   -0.3615   -0.4172 O   0  0  0  0  0  0  0  0  0  0  0  0
    4.2009    0.7114   -1.1587 C   0  0  0  0  0  0  0  0  0  0  0  0
    4.4563    1.9202   -0.5411 F   0  0  0  0  0  0  0  0  0  0  0  0
    4.7870    0.7240   -2.3876 F   0  0  0  0  0  0  0  0  0  0  0  0
    2.7060    0.5318   -1.3066 C   0  0  0  0  0  0  0  0  0  0  0  0
    2.1583    1.5491   -2.0250 F   0  0  0  0  0  0  0  0  0  0  0  0
    2.5087   -0.6631   -1.9957 F   0  0  0  0  0  0  0  0  0  0  0  0
    2.0471    0.3540    0.0470 C   0  0  0  0  0  0  0  0  0  0  0  0
    2.2888    1.4740    0.8238 F   0  0  0  0  0  0  0  0  0  0  0  0
    2.5616   -0.7410    0.7130 F   0  0  0  0  0  0  0  0  0  0  0  0
    0.6777    0.1318   -0.0776 O   0  0  0  0  0  0  0  0  0  0  0  0
    0.1676   -0.0170    1.1888 C   0  0  0  0  0  0  0  0  0  0  0  0
    0.7331   -1.0796    1.8747 F   0  0  0  0  0  0  0  0  0  0  0  0
    0.5345    1.1182    1.9245 F   0  0  0  0  0  0  0  0  0  0  0  0
   -1.3383   -0.0668    1.2580 C   0  0  0  0  0  0  0  0  0  0  0  0
   -1.8878   -1.0977    0.5470 O   0  0  0  0  0  0  0  0  0  0  0  0
   -3.2644   -1.1786    0.5867 C   0  0  0  0  0  0  0  0  0  0  0  0
   -3.9432    0.0489    0.0433 C   0  0  0  0  0  0  0  0  0  0  0  0
   -5.4560   -0.1318    0.1045 C   0  0  0  0  0  0  0  0  0  0  0  0
   -5.9052   -1.1870   -0.6623 O   0  0  0  0  0  0  0  0  0  0  0  0
   -3.6043    0.2847   -1.2800 O   0  0  0  0  0  0  0  0  0  0  0  0
   -1.7292    0.9193    0.9312 H   0  0  0  0  0  0  0  0  0  0  0  0
   -1.5984   -0.1867    2.3305 H   0  0  0  0  0  0  0  0  0  0  0  0
   -3.5754   -2.0252   -0.0517 H   0  0  0  0  0  0  0  0  0  0  0  0
   -3.6605   -1.3876    1.5991 H   0  0  0  0  0  0  0  0  0  0  0  0
   -3.7415    0.9673    0.6314 H   0  0  0  0  0  0  0  0  0  0  0  0
   -5.8075   -0.2568    1.1497 H   0  0  0  0  0  0  0  0  0  0  0  0
   -5.9437    0.8077   -0.2470 H   0  0  0  0  0  0  0  0  0  0  0  0
   -6.0191   -0.9555   -1.6240 H   0  0  0  0  0  0  0  0  0  0  0  0
   -2.6347    0.4967   -1.2975 H   0  0  0  0  0  0  0  0  0  0  0  0
  1  2  1  0
  1  3  1  0
  1  4  1  0
  1  5  1  0
  5  6  1  0
  6  7  1  0
  6  8  1  0
  6  9  1  0
  9 10  1  0
  9 11  1  0
  9 12  1  0
 12 13  1  0
 12 14  1  0
 12 15  1  0
 15 16  1  0
 16 17  1  0
 16 18  1  0
 16 19  1  0
 19 20  1  0
 20 21  1  0
 21 22  1  0
 22 23  1  0
 23 24  1  0
 22 25  1  0
 19 26  1  0
 19 27  1  0
 21 28  1  0
 21 29  1  0
 22 30  1  0
 23 31  1  0
 23 32  1  0
 24 33  1  0
 25 34  1  0
M  END
